b.pdb
 OpenBabel08081716063D

 16 15  0  0  1  0  0  0  0  0999 V2000
   20.7110   76.6550   -6.4090 N   0  0  0  0  0  0  0  0  0  0  0  0
   19.5240   75.9630   -5.9040 C   0  0  2  0  0  0  0  0  0  0  0  0
   19.5140   75.8590   -4.3850 C   0  0  0  0  0  0  0  0  0  0  0  0
   18.4670   75.9710   -3.7520 O   0  0  0  0  0  0  0  0  0  0  0  0
   19.4130   74.5690   -6.5330 C   0  0  0  0  0  0  0  0  0  0  0  0
   19.2370   74.6150   -8.0600 C   0  0  0  0  0  0  0  0  0  0  0  0
   18.7690   75.6460   -8.6080 O   0  0  0  0  0  0  0  0  0  0  0  0
   19.5560   73.6060   -8.7180 O   0  0  0  0  0  0  0  0  0  0  0  0
   20.6830   75.6400   -3.7990 N   0  0  0  0  0  0  0  0  0  0  0  0
   20.7840   75.5300   -2.3480 C   0  0  2  0  0  0  0  0  0  0  0  0
   20.4220   76.8450   -1.6720 C   0  0  0  0  0  0  0  0  0  0  0  0
   19.7820   76.8480   -0.6400 O   0  0  0  0  0  0  0  0  0  0  0  0
   22.1980   75.1000   -1.9380 C   0  0  0  0  0  0  0  0  0  0  0  0
   22.4660   75.0340   -0.4300 C   0  0  0  0  0  0  0  0  0  0  0  0
   21.4710   74.1280    0.2720 C   0  0  0  0  0  0  0  0  0  0  0  0
   23.8900   74.5930   -0.1490 C   0  0  0  0  0  0  0  0  0  0  0  0
  1  2  1  0  0  0  0
  2  5  1  6  0  0  0
  2  3  1  0  0  0  0
  3  9  1  0  0  0  0
  3  4  2  0  0  0  0
  6  5  1  0  0  0  0
  7  6  1  0  0  0  0
  8  6  2  0  0  0  0
 10  9  1  6  0  0  0
 10 13  1  0  0  0  0
 10 11  1  0  0  0  0
 11 12  2  0  0  0  0
 13 14  1  0  0  0  0
 14 16  1  0  0  0  0
 14 15  1  0  0  0  0
M  END
>  <ANISOU>
 3351  N   ASP C 163     8013   8358   7634   2311    348   1501       N  
 3352  CA  ASP C 163     7779   8951   8058   2172    397   1599       C  
 3353  C   ASP C 163     7915   9257   8251   2153    637   1855       C  
 3354  O   ASP C 163     7803   9869   8426   2231    748   1950       O  
 3355  CB  ASP C 163     7534   8794   8398   1741    310   1524       C  
 3356  CG  ASP C 163     7657   8940   8498   1789     46   1228       C  
 3357  OD1 ASP C 163     7850   9343   8352   2178    -65   1120       O  
 3358  OD2 ASP C 163     7614   8676   8718   1479    -49   1100       O  
 3359  N   LEU C 164     8078   8835   8130   2080    717   1954       N  
 3360  CA  LEU C 164     7796   8694   7786   2125    927   2196       C  
 3361  C   LEU C 164     7914   9043   7504   2514    999   2169       C  
 3362  O   LEU C 164     7964   9604   7653   2609   1172   2343       O  
 3363  CB  LEU C 164     7835   8132   7541   2060    941   2246       C  
 3364  CG  LEU C 164     7756   8181   7252   2195   1122   2477       C  
 3365  CD1 LEU C 164     7988   8862   7890   2045   1332   2796       C  
 3366  CD2 LEU C 164     7641   7595   6869   2198   1077   2473       C  

$$$$
